data_FIJDOS_clean
_audit_creation_date              2014-07-02
_audit_creation_method            'Materials Studio'
_symmetry_space_group_name_H-M    'P1'
_symmetry_Int_Tables_number       1
_symmetry_cell_setting            triclinic
loop_
_symmetry_equiv_pos_as_xyz
  x,y,z
_cell_length_a                    6.919823
_cell_length_b                    15.227342
_cell_length_c                    15.227342
_cell_angle_alpha                 62.252155
_cell_angle_beta                  81.287384
_cell_angle_gamma                 98.712616
loop_
_atom_site_label
_atom_site_fract_x
_atom_site_fract_y
_atom_site_fract_z
_atom_site_charge
Zn 0.8951861595169199 0.6740804468177621 0.5914659657528515 0.982704
Zn 0.4866521252947678 0.5914659657541462 0.7344535874283645 0.982332
Zn 0.2211057127011468 0.7344535874276223 0.6740804468192538 0.982725
Zn 0.1048138404830798 0.3259195531822382 0.4085340342471487 0.982704
Zn 0.5133478747052324 0.4085340342458542 0.2655464125716355 0.982332
Zn 0.7788942872988531 0.2655464125723777 0.3259195531807459 0.982725
H 0.6540749624696802 0.0221551983434351 0.5319470069343292 0.134199
H 0.1860219694214919 0.5319470069281641 0.4458977947256514 0.134614
H 0.6319197641172993 0.4458977947198445 0.0221551983485612 0.134393
H 0.3459250375303198 0.9778448016565650 0.4680529930656706 0.134199
H 0.8139780305785080 0.4680529930718356 0.5541022052743485 0.134614
H 0.3680802358827009 0.5541022052801552 0.9778448016514385 0.134393
C 0.6488085299280762 0.8276023484452637 0.6115237721520134 0.639000
C 0.8335421801784023 0.9138816753513858 0.5541630894533174 -0.149113
C 0.0315303047470391 0.8991878186424217 0.5366104610843505 0.313084
C 0.8069864371616260 0.0131780827792265 0.5175015648208576 -0.195137
C 0.2603323020877257 0.6115237721493433 0.5608738794033769 0.637661
C 0.3877052696602853 0.5541630894599923 0.5319552351922879 -0.149392
C 0.5681407658403450 0.5366104610811859 0.5642017202757998 0.313632
C 0.3244880019872768 0.5175015648264620 0.4693203523966622 -0.196064
C 0.8212061814969618 0.5608738794043541 0.8276023484456623 0.638778
C 0.9196605048708959 0.5319552351963271 0.9138816753466896 -0.149121
C 0.1323424861155605 0.5642017202696492 0.8991878186466071 0.312652
C 0.7938083543934875 0.4693203524022945 0.0131780827744827 -0.195488
C 0.3511914700719238 0.1723976515547362 0.3884762278479865 0.639000
C 0.1664578198215981 0.0861183246486145 0.4458369105466825 -0.149113
C 0.9684696952529611 0.1008121813575783 0.4633895389156494 0.313084
C 0.1930135628383740 0.9868219172207734 0.4824984351791421 -0.195138
C 0.7396676979122746 0.3884762278506568 0.4391261205966228 0.637661
C 0.6122947303397148 0.4458369105400073 0.4680447648077120 -0.149392
C 0.4318592341596547 0.4633895389188141 0.4357982797242000 0.313632
C 0.6755119980127232 0.4824984351735377 0.5306796476033381 -0.196064
C 0.1787938185030379 0.4391261205956459 0.1723976515543376 0.638778
C 0.0803394951291038 0.4680447648036729 0.0861183246533105 -0.149121
C 0.8676575138844391 0.4357982797303508 0.1008121813533929 0.312651
C 0.2061916456065124 0.5306796475977054 0.9868219172255170 -0.195489
O 0.6713480350108538 0.7361172144312936 0.6460136168241102 -0.591207
O 0.4767655943187634 0.8466615122873947 0.6239986113794086 -0.530055
O 0.0730902723205459 0.8062663624930669 0.5682058140091432 -0.603282
O 0.3173616518360997 0.6460136168292252 0.6178691687411116 -0.590480
O 0.1007642056873083 0.6239986113776986 0.5293398763342116 -0.529517
O 0.6412960863323580 0.5682058140085454 0.6255278234983964 -0.603204
O 0.9352308205966176 0.6178691687486536 0.7361172144256060 -0.591182
O 0.6301040820073006 0.5293398763323861 0.8466615122889007 -0.529760
O 0.2668239098365767 0.6255278234979180 0.8062663624929154 -0.602768
O 0.3286519649891463 0.2638827855687064 0.3539863831758897 -0.591207
O 0.5232344056812364 0.1533384877126054 0.3760013886205917 -0.530055
O 0.9269097276794542 0.1937336375069331 0.4317941859908568 -0.603282
O 0.6826383481639003 0.3539863831707749 0.3821308312588886 -0.590480
O 0.8992357943126915 0.3760013886223014 0.4706601236657885 -0.529517
O 0.3587039136676419 0.4317941859914546 0.3744721765016034 -0.603204
O 0.0647691794033823 0.3821308312513463 0.2638827855743943 -0.591182
O 0.3698959179926992 0.4706601236676140 0.1533384877110991 -0.529760
O 0.7331760901634234 0.3744721765020819 0.1937336375070845 -0.602768
