data_NAVJAW_clean
_audit_creation_date              2014-07-02
_audit_creation_method            'Materials Studio'
_symmetry_space_group_name_H-M    'P1'
_symmetry_Int_Tables_number       1
_symmetry_cell_setting            triclinic
loop_
_symmetry_equiv_pos_as_xyz
  x,y,z
_cell_length_a                    6.796522
_cell_length_b                    15.250907
_cell_length_c                    15.249119
_cell_angle_alpha                 62.180996
_cell_angle_beta                  81.466866
_cell_angle_gamma                 98.555679
loop_
_atom_site_label
_atom_site_fract_x
_atom_site_fract_y
_atom_site_fract_z
_atom_site_charge
Co 0.2843226989799720 0.2707053929364045 0.3261607042359164 0.949983
Co 0.6099936840122396 0.3261448533862585 0.4031798683114548 0.949512
Co 0.0133693190603031 0.4031482343344924 0.2707070512415430 0.950076
Co 0.7156773010200280 0.7292946070635953 0.6738392957640843 0.949983
Co 0.3900063159877601 0.6738551466137411 0.5968201316885455 0.949512
Co 0.9866306809396972 0.5968517656655079 0.7292929487584568 0.950077
H 0.3200687063081182 0.4672674272991011 0.5549251574131553 0.137246
H 0.8750013506561125 0.5548657255736196 0.9778548103266138 0.137081
H 0.8529077957075357 0.9779098017883330 0.4672599178255697 0.137802
H 0.6799312936918821 0.5327325727008988 0.4450748425868452 0.137246
H 0.1249986493438875 0.4451342744263802 0.0221451896733863 0.137081
H 0.1470922042924643 0.0220901982116670 0.5327400821744304 0.137801
C 0.2436990921980205 0.3901239412355530 0.4372971937158300 0.631913
C 0.1151117702957886 0.4461129046133324 0.4679963279373652 -0.141144
C 0.9299867049399256 0.4636297795276407 0.4361998454839756 0.318317
C 0.1797366396900232 0.4819916948470839 0.5308195037311751 -0.186809
C 0.6810103586788983 0.4372385485343281 0.1725977076065873 0.632559
C 0.5831567736591551 0.4679722628233663 0.0858817245254744 -0.141406
C 0.3662110993840577 0.4362005098540032 0.1001886526358985 0.317762
C 0.7105581698736806 0.5307671574286091 0.9871886183287609 -0.185873
C 0.8535421637027264 0.1726857154127275 0.3900623316031974 0.630802
C 0.6690086531078946 0.0859195538480816 0.4460948007614294 -0.140777
C 0.4663304773264953 0.1001227973168487 0.4636410721374744 0.318836
C 0.6978114022727094 0.9872514460413376 0.4819929985413526 -0.187670
C 0.7563009078019798 0.6098760587644474 0.5627028062841700 0.631913
C 0.8848882297042114 0.5538870953866674 0.5320036720626348 -0.141145
C 0.0700132950600743 0.5363702204723596 0.5638001545160246 0.318320
C 0.8202633603099772 0.5180083051529167 0.4691804962688249 -0.186805
C 0.3189896413211022 0.5627614514656721 0.8274022923934125 0.632559
C 0.4168432263408449 0.5320277371766335 0.9141182754745255 -0.141407
C 0.6337889006159421 0.5637994901459968 0.8998113473641016 0.317764
C 0.2894418301263196 0.4692328425713914 0.0128113816712394 -0.185870
C 0.1464578362972732 0.8273142845872795 0.6099376683968029 0.630802
C 0.3309913468921053 0.9140804461519184 0.5539051992385703 -0.140778
C 0.5336695226735049 0.8998772026831513 0.5363589278625254 0.318839
C 0.3021885977272906 0.0127485539586625 0.5180070014586468 -0.187667
O 0.1886812205790293 0.3603502249154654 0.3762158373689084 -0.597735
O 0.4034071110664908 0.3724675843322641 0.4698297183558723 -0.532380
O 0.8569990809381063 0.4308871996260014 0.3763321557246075 -0.579373
O 0.5648533432760923 0.3762520295420986 0.2634094633657112 -0.597733
O 0.8732309343013008 0.4697280786498275 0.1578021927448275 -0.532699
O 0.2333987459219965 0.3762881598712539 0.1927721285939704 -0.579535
O 0.8280290211780386 0.2634672135531384 0.3602354552625759 -0.596488
O 0.0309522429520911 0.1578718224296936 0.3724401669332053 -0.532365
O 0.4260706945561989 0.1926994053644403 0.4309932498054311 -0.579910
O 0.8113187794209706 0.6396497750845348 0.6237841626310913 -0.597735
O 0.5965928889335090 0.6275324156677362 0.5301702816441277 -0.532380
O 0.1430009190618938 0.5691128003739981 0.6236678442753927 -0.579373
O 0.4351466567239078 0.6237479704579013 0.7365905366342891 -0.597733
O 0.1267690656986991 0.5302719213501728 0.8421978072551722 -0.532699
O 0.7666012540780032 0.6237118401287459 0.8072278714060290 -0.579536
O 0.1719709788219682 0.7365327864468615 0.6397645447374237 -0.596488
O 0.9690477570479091 0.8421281775703063 0.6275598330667942 -0.532365
O 0.5739293054438012 0.8073005946355599 0.5690067501945687 -0.579911
