data_VOGTIV_clean_h
_audit_creation_date              2014-07-02
_audit_creation_method            'Materials Studio'
_symmetry_space_group_name_H-M    'P1'
_symmetry_Int_Tables_number       1
_symmetry_cell_setting            triclinic
loop_
_symmetry_equiv_pos_as_xyz
  x,y,z
_cell_length_a                    6.872739
_cell_length_b                    15.233844
_cell_length_c                    15.232873
_cell_angle_alpha                 62.253693
_cell_angle_beta                  81.343842
_cell_angle_gamma                 98.5271
loop_
_atom_site_label
_atom_site_fract_x
_atom_site_fract_y
_atom_site_fract_z
_atom_site_charge
Mg 0.3897573123336172 0.4064194782767604 0.3249558743098745 1.410517
Mg 0.7140223229372772 0.3244133696317085 0.2685957495694982 1.410593
Mg 0.9828667861081826 0.2680540225492645 0.4068330639477402 1.411113
Mg 0.6099530608061631 0.5931656165277268 0.6750935232570152 1.409968
Mg 0.2852777620623828 0.6747889110183505 0.7318087889374220 1.409955
Mg 0.0166558928262456 0.7314880764829579 0.5934870679720085 1.409925
C 0.7564014931000579 0.4351268884556033 0.3917101396583799 0.677659
C 0.8852443661046382 0.4657991730028953 0.4476718863414819 -0.165691
C 0.8225642803036194 0.5300179756617509 0.4823236719569454 -0.203781
C 0.0683118565770882 0.4340156368991370 0.4651063673173617 0.339138
C 0.1477150170148962 0.3911705460788563 0.1730899104289458 0.678748
C 0.3326077543035483 0.4471010811384223 0.0864881853962893 -0.164489
C 0.3045246963098242 0.4817723788354619 0.9876479075805666 -0.205033
C 0.5331936864379636 0.4646698884946055 0.1008506650356322 0.338256
C 0.3199629035200681 0.1722780662611630 0.4357643686928805 0.678860
C 0.4184377106618977 0.0858480911984133 0.4664073921733890 -0.164824
C 0.2919850027764689 0.9868382997324635 0.5308472609683135 -0.206530
C 0.6334029164114191 0.1004160082602640 0.4343786149033474 0.337790
C 0.2427931077899235 0.5640330215445795 0.6087877916951854 0.677454
C 0.1142090869523416 0.5334727494471219 0.5527305899895789 -0.164965
C 0.1769430998994160 0.4692546608889850 0.5179971662423412 -0.205147
C 0.9313642785982641 0.5654700238540166 0.5350451795461579 0.338894
C 0.8514989068384824 0.6084066301949691 0.8272458673060236 0.676996
C 0.6667968928219412 0.5522908944749886 0.9138365423378105 -0.164552
C 0.6948061818254704 0.5176182937100271 0.0127643989342287 -0.205591
C 0.4661789745648224 0.5346421924627589 0.8995122575756189 0.339020
C 0.6794524293460947 0.8271542035290648 0.5644244351693968 0.678651
C 0.5809264745820509 0.9135360432218412 0.5339114792623575 -0.165271
C 0.7073846298284691 0.0125582816391153 0.4694746243226681 -0.204541
C 0.3659043786098666 0.8989301664528467 0.5660877876982642 0.339007
O 0.6012548071037340 0.4694739833042468 0.3727652731196386 -0.632382
O 0.8048866961073600 0.3716722892901024 0.3635611131971414 -0.761741
O 0.1401208711383284 0.3731681612566432 0.4333252934380398 -0.793536
O 0.9734489992733637 0.3722601965417829 0.1577235389591878 -0.632723
O 0.1683383946394770 0.3630228276986647 0.2646511130244392 -0.762660
O 0.5733751977039108 0.4330747793126378 0.1934318798061582 -0.793458
O 0.1302330819801866 0.1567056212902469 0.4700633432389820 -0.632505
O 0.4320434762434857 0.2639508489703367 0.3723334293089486 -0.762399
O 0.7661087939639207 0.1930711310433675 0.3733668157214767 -0.793464
O 0.3978323168735431 0.5295918760989156 0.6278911759642883 -0.632859
O 0.1942235540913679 0.6275415810256132 0.6368896632949970 -0.761448
O 0.8598799907717575 0.6266403882209921 0.5664332598657857 -0.792774
O 0.0258012517722779 0.6273633689119558 0.8425755335665299 -0.631916
O 0.8308566148789319 0.6366822502607351 0.7356346436337873 -0.762044
O 0.4261480248028467 0.5662366229226833 0.8069302599702841 -0.792734
O 0.8692250418186628 0.8427931553872190 0.5301110898215581 -0.632521
O 0.5673501030016899 0.7354336426620760 0.6277691947715068 -0.762417
O 0.2332948338629331 0.8063024035836468 0.6272649665168318 -0.793229
H 0.6832015828996149 0.5532021735673016 0.4676080031304519 0.129940
H 0.1504046860828493 0.4670377748498660 0.9791389234965718 0.130690
H 0.1292203095770033 0.9779420093875398 0.5544414226901998 0.131442
H 0.3163325168854111 0.4460171267776502 0.5327769997070682 0.130548
H 0.8490208122537878 0.5326565683455355 0.0212214184523538 0.131085
H 0.8701747800210535 0.0216085493641294 0.4457430867770496 0.130973
