# generated using pymatgen
data_Ti4H17C24(NO6)3
_symmetry_space_group_name_H-M   'P 1'
_cell_length_a   16.25463500
_cell_length_b   16.25463500
_cell_length_c   16.25463500
_cell_angle_alpha   108.11459400
_cell_angle_beta   108.11459400
_cell_angle_gamma   112.21994800
_symmetry_Int_Tables_number   1
_chemical_formula_structural   Ti4H17C24(NO6)3
_chemical_formula_sum   'Ti8 H34 C48 N6 O36'
_cell_volume   3300.31562685
_cell_formula_units_Z   2
loop_
 _symmetry_equiv_pos_site_id
 _symmetry_equiv_pos_as_xyz
  1  'x, y, z'
loop_
 _atom_site_type_symbol
 _atom_site_label
 _atom_site_symmetry_multiplicity
 _atom_site_fract_x
 _atom_site_fract_y
 _atom_site_fract_z
 _atom_site_occupancy
  Ti  Ti0  1  0.28984000  0.57187000  0.86171000  1.0
  Ti  Ti1  1  0.71016000  0.42813000  0.13829000  1.0
  Ti  Ti2  1  0.42813000  0.28984000  0.71797000  1.0
  Ti  Ti3  1  0.57187000  0.71016000  0.28203000  1.0
  Ti  Ti4  1  0.42813000  0.71016000  0.13829000  1.0
  Ti  Ti5  1  0.57187000  0.28984000  0.86171000  1.0
  Ti  Ti6  1  0.28984000  0.42813000  0.71797000  1.0
  Ti  Ti7  1  0.71016000  0.57187000  0.28203000  1.0
  H  H8  1  0.54077900  0.38149000  0.54422700  1.0
  H  H10  1  0.16273700  0.00344800  0.54422700  1.0
  H  H11  1  0.83726300  0.99655200  0.45577300  1.0
  H  H12  1  0.38149000  0.83726300  0.84071100  1.0
  H  H13  1  0.61851000  0.16273700  0.15928900  1.0
  H  H14  1  0.00344800  0.45922100  0.84071100  1.0
  H  H15  1  0.99655200  0.54077900  0.15928900  1.0
  H  H16  1  0.45922100  0.00344800  0.84071100  1.0
  H  H19  1  0.16273700  0.61851000  0.15928900  1.0
  H  H20  1  0.61851000  0.45922100  0.45577300  1.0
  H  H21  1  0.38149000  0.54077900  0.54422700  1.0
  H  H23  1  0.00344800  0.16273700  0.54422700  1.0
  H  H24  1  0.42619600  0.57380400  0.00000000  1.0
  H  H25  1  0.57380400  0.42619600  0.00000000  1.0
  H  H26  1  0.42619600  0.42619600  0.85239200  1.0
  H  H27  1  0.57380400  0.57380400  0.14760800  1.0
  H  H28  1  0.38726500  0.06572600  0.45299100  1.0
  H  H29  1  0.61273500  0.93427400  0.54700900  1.0
  H  H30  1  0.06572600  0.61273500  0.67846100  1.0
  H  H31  1  0.93427400  0.38726500  0.32153900  1.0
  H  H32  1  0.06572600  0.38726500  0.45299100  1.0
  H  H34  1  0.38726500  0.93427400  0.32153900  1.0
  C  C36  1  0.84855300  0.50000000  0.34855300  1.0
  C  C37  1  0.15144700  0.50000000  0.65144700  1.0
  C  C38  1  0.50000000  0.15144700  0.65144700  1.0
  C  C39  1  0.50000000  0.84855300  0.34855300  1.0
  C  C40  1  0.92671200  0.50000000  0.42671200  1.0
  C  C41  1  0.07328800  0.50000000  0.57328800  1.0
  C  C42  1  0.50000000  0.07328800  0.57328800  1.0
  C  C43  1  0.50000000  0.92671200  0.42671200  1.0
  C  C44  1  0.96354500  0.56371600  0.52726100  1.0
  C  C45  1  0.03645500  0.43628400  0.47273900  1.0
  C  C46  1  0.56371600  0.03645500  0.60017100  1.0
  C  C47  1  0.43628400  0.96354500  0.39982900  1.0
  C  C48  1  0.56371600  0.96354500  0.52726100  1.0
  C  C49  1  0.43628400  0.03645500  0.47273900  1.0
  C  C50  1  0.96354500  0.43628400  0.39982900  1.0
  C  C51  1  0.03645500  0.56371600  0.60017100  1.0
  C  C52  1  0.54349100  0.54349100  0.45096600  1.0
  C  C53  1  0.45650900  0.45650900  0.54903400  1.0
  C  C54  1  0.90747500  0.90747500  0.45096600  1.0
  C  C55  1  0.09252500  0.09252500  0.54903400  1.0
  C  C56  1  0.54349100  0.09252500  0.00000000  1.0
  C  C57  1  0.45650900  0.90747500  0.00000000  1.0
  C  C58  1  0.90747500  0.45650900  0.00000000  1.0
  C  C59  1  0.09252500  0.54349100  0.00000000  1.0
  C  C60  1  0.58866900  0.58866900  0.39718800  1.0
  C  C61  1  0.41133100  0.41133100  0.60281200  1.0
  C  C62  1  0.80851900  0.80851900  0.39718800  1.0
  C  C63  1  0.19148100  0.19148100  0.60281200  1.0
  C  C64  1  0.58866900  0.19148100  0.00000000  1.0
  C  C65  1  0.41133100  0.80851900  0.00000000  1.0
  C  C66  1  0.80851900  0.41133100  0.00000000  1.0
  C  C67  1  0.19148100  0.58866900  0.00000000  1.0
  C  C68  1  0.47659300  0.56664700  0.47562000  1.0
  C  C69  1  0.52340700  0.43335300  0.52438000  1.0
  C  C70  1  0.90897300  0.99902700  0.47562000  1.0
  C  C71  1  0.09102700  0.00097300  0.52438000  1.0
  C  C72  1  0.56664700  0.09102700  0.09005400  1.0
  C  C73  1  0.43335300  0.90897300  0.90994600  1.0
  C  C74  1  0.99902700  0.52340700  0.09005400  1.0
  C  C75  1  0.00097300  0.47659300  0.90994600  1.0
  C  C76  1  0.99902700  0.90897300  0.47562000  1.0
  C  C77  1  0.00097300  0.09102700  0.52438000  1.0
  C  C78  1  0.56664700  0.47659300  0.47562000  1.0
  C  C79  1  0.43335300  0.52340700  0.52438000  1.0
  C  C80  1  0.90897300  0.43335300  0.90994600  1.0
  C  C81  1  0.09102700  0.56664700  0.09005400  1.0
  C  C82  1  0.47659300  0.00097300  0.90994600  1.0
  C  C83  1  0.52340700  0.99902700  0.09005400  1.0
  N  N9  1  0.45922100  0.61851000  0.45577300  1.0
  N  N17  1  0.54077900  0.99655200  0.15928900  1.0
  N  N18  1  0.83726300  0.38149000  0.84071100  1.0
  N  N22  1  0.99655200  0.83726300  0.45577300  1.0
  N  N33  1  0.93427400  0.61273500  0.54700900  1.0
  N  N35  1  0.61273500  0.06572600  0.67846100  1.0
  O  O84  1  0.81690300  0.55911600  0.37601900  1.0
  O  O85  1  0.18309700  0.44088400  0.62398100  1.0
  O  O86  1  0.55911600  0.18309700  0.74221300  1.0
  O  O87  1  0.44088400  0.81690300  0.25778700  1.0
  O  O88  1  0.55911600  0.81690300  0.37601900  1.0
  O  O89  1  0.44088400  0.18309700  0.62398100  1.0
  O  O90  1  0.81690300  0.44088400  0.25778700  1.0
  O  O91  1  0.18309700  0.55911600  0.74221300  1.0
  O  O92  1  0.63149500  0.43234400  0.19915100  1.0
  O  O93  1  0.36850500  0.56765600  0.80084900  1.0
  O  O94  1  0.76680700  0.56765600  0.19915100  1.0
  O  O95  1  0.23319300  0.43234400  0.80084900  1.0
  O  O96  1  0.43234400  0.23319300  0.80084900  1.0
  O  O97  1  0.56765600  0.76680700  0.19915100  1.0
  O  O98  1  0.56765600  0.36850500  0.80084900  1.0
  O  O99  1  0.43234400  0.63149500  0.19915100  1.0
  O  O100  1  0.64834500  0.56490300  0.37546400  1.0
  O  O101  1  0.35165500  0.43509700  0.62453600  1.0
  O  O102  1  0.81056100  0.72711900  0.37546400  1.0
  O  O103  1  0.18943900  0.27288100  0.62453600  1.0
  O  O104  1  0.56490300  0.18943900  0.91655800  1.0
  O  O105  1  0.43509700  0.81056100  0.08344200  1.0
  O  O106  1  0.72711900  0.35165500  0.91655800  1.0
  O  O107  1  0.27288100  0.64834500  0.08344200  1.0
  O  O108  1  0.72711900  0.81056100  0.37546400  1.0
  O  O109  1  0.27288100  0.18943900  0.62453600  1.0
  O  O110  1  0.56490300  0.64834500  0.37546400  1.0
  O  O111  1  0.43509700  0.35165500  0.62453600  1.0
  O  O112  1  0.81056100  0.43509700  0.08344200  1.0
  O  O113  1  0.18943900  0.56490300  0.91655800  1.0
  O  O114  1  0.64834500  0.27288100  0.08344200  1.0
  O  O115  1  0.35165500  0.72711900  0.91655800  1.0
  O  O116  1  0.60974500  0.60974500  0.21949000  1.0
  O  O117  1  0.39025500  0.39025500  0.78051000  1.0
  O  O118  1  0.60974500  0.39025500  0.00000000  1.0
  O  O119  1  0.39025500  0.60974500  0.00000000  1.0
  H  H120  1  0.45717282  0.68278389  0.47568142  1
  H  H121  1  0.43337537  0.63751129  0.40399672  1
  H  H122  1  0.53453758  0.95615843  0.19569337  1
  H  H123  1  0.57491423  1.03297152  0.23405362  1
  H  H124  1  0.79165169  0.36260569  0.77088403  1
  H  H125  1  0.76773125  0.31709911  0.79936896  1
  H  H126  1  0.99344551  0.77756178  0.40780854  1
  H  H127  1  0.99568445  0.78182117  0.47186960  1
  H  H128  1  0.90421453  0.63961234  0.58632921  1
  H  H129  1  0.91733256  0.66456826  0.53939847  1
  H  H130  1  0.63359387  0.05403859  0.73710648  1
  H  H131  1  0.67058674  0.12441433  0.74552704  1
