data_image0
_chemical_formula_structural       Ti8H34C48N6O36
_chemical_formula_sum              "Ti8 H34 C48 N6 O36"
_cell_length_a       16.037680110676014
_cell_length_b       16.328618521408895
_cell_length_c       16.106551738058073
_cell_angle_alpha    108.56132722293957
_cell_angle_beta     107.14914359102502
_cell_angle_gamma    112.26678016558269

_space_group_name_H-M_alt    "P 1"
_space_group_IT_number       1

loop_
  _space_group_symop_operation_xyz
  'x, y, z'

loop_
  _atom_site_type_symbol
  _atom_site_label
  _atom_site_symmetry_multiplicity
  _atom_site_fract_x
  _atom_site_fract_y
  _atom_site_fract_z
  _atom_site_occupancy
  Ti  Ti1       1.0  0.2963677240758378  0.5789956279234112  0.860429110485663  1.0000
  Ti  Ti2       1.0  0.7119047629056103  0.42641911764840085  0.13781784052284343  1.0000
  Ti  Ti3       1.0  0.42842045990101557  0.2920969360548058  0.7175093469936098  1.0000
  Ti  Ti4       1.0  0.5776552029888032  0.7145974539376881  0.27971715483670084  1.0000
  Ti  Ti5       1.0  0.4248899612282635  0.7021734125348631  0.13452061956190448  1.0000
  Ti  Ti6       1.0  0.5646198348322935  0.2894523535188907  0.863582649589053  1.0000
  Ti  Ti7       1.0  0.28533424629489906  0.4246636436238394  0.7178277703938919  1.0000
  Ti  Ti8       1.0  0.701612351980156  0.5654887125104588  0.27605732571566793  1.0000
  H   H1        1.0  0.5344506756038615  0.376359483165092  0.5313103169898579  1.0000
  H   H2        1.0  0.17109186195112502  0.010760020124515953  0.5506261761838116  1.0000
  H   H3        1.0  0.8343799541110303  0.9851192503403264  0.44737597761397613  1.0000
  H   H4        1.0  0.39191772011127296  0.8378993389902714  0.8473101981727011  1.0000
  H   H5        1.0  0.6116170901577783  0.1671825154298021  0.1598623275241786  1.0000
  H   H6        1.0  0.010215155822155694  0.4634480429075153  0.8375384217642213  1.0000
  H   H7        1.0  0.9863397556307751  0.5327188978781927  0.15022929978091748  1.0000
  H   H8        1.0  0.4582772349283732  0.0008798401111614817  0.8407412831587485  1.0000
  H   H9        1.0  0.15680741742538884  0.620415260692605  0.15674354971899251  1.0000
  H   H10       1.0  0.6141009269435674  0.46297609756044883  0.4476680323037396  1.0000
  H   H11       1.0  0.379404082373409  0.5403426247337387  0.552849008762405  1.0000
  H   H12       1.0  0.9965376862006726  0.15576724070323425  0.5425874404756917  1.0000
  H   H13       1.0  0.3778398709733038  0.5395268276112453  0.9920734043174987  1.0000
  H   H14       1.0  0.6162281831280586  0.45628518256338896  0.003408714563749363  1.0000
  H   H15       1.0  0.4575519998506914  0.4606460765092627  0.8318044554705862  1.0000
  H   H16       1.0  0.5365262051657951  0.5420853278645811  0.1622015441934904  1.0000
  H   H17       1.0  0.3973547578435178  0.07443414930703067  0.45835647815279695  1.0000
  H   H18       1.0  0.6026346306693509  0.9215762908479616  0.5414040575150377  1.0000
  H   H19       1.0  0.0670989642973639  0.6123258480004511  0.6817183896303677  1.0000
  H   H20       1.0  0.9321561204215133  0.39037936454853944  0.3224824485468651  1.0000
  H   H21       1.0  0.06500783915007875  0.3880419172915877  0.4499287027661312  1.0000
  H   H22       1.0  0.387933987418021  0.937055402155771  0.32172290263378  1.0000
  H   H23       1.0  0.4039244769833535  0.6554682365537857  0.48882751514412676  1.0000
  H   H24       1.0  0.48441408574931083  0.6775857380151534  0.43409509808485564  1.0000
  H   H25       1.0  0.5250345887665276  0.9440985054321086  0.19215331231738453  1.0000
  H   H26       1.0  0.5981467314209591  0.07709648832612293  0.25033129466240983  1.0000
  H   H27       1.0  0.8300065254165192  0.35090290694561294  0.7472475876529664  1.0000
  H   H28       1.0  0.7532948099916763  0.32726420377460397  0.8056924900927425  1.0000
  H   H29       1.0  0.08342581245056091  0.831248237788843  0.469214507739905  1.0000
  H   H30       1.0  0.9493264476592094  0.7543875993820499  0.4107729497910429  1.0000
  H   H31       1.0  0.9564693019607877  0.6721036057797466  0.6385736206209619  1.0000
  H   H32       1.0  0.8730594638500705  0.6296489674621096  0.5145058253481316  1.0000
  H   H33       1.0  0.6663027576193473  0.028890758463939428  0.711750797898649  1.0000
  H   H34       1.0  0.6305738959331701  0.1169065171946622  0.7544759749470966  1.0000
  C   C1        1.0  0.8463422514111671  0.4991365751911632  0.3493392635749182  1.0000
  C   C2        1.0  0.15240825433837452  0.5016115135197252  0.6510442227237682  1.0000
  C   C3        1.0  0.5050181586041746  0.1564634547719914  0.6521096612404813  1.0000
  C   C4        1.0  0.49268899432876556  0.8410581838533208  0.345708398644999  1.0000
  C   C5        1.0  0.9235591378847833  0.5014579763056716  0.42880936099535294  1.0000
  C   C6        1.0  0.07314621439845363  0.5009448599141565  0.5732308084435249  1.0000
  C   C7        1.0  0.5043329843533341  0.07584945716501999  0.5765109320043997  1.0000
  C   C8        1.0  0.49550556122649353  0.9220228873416424  0.4250215139004598  1.0000
  C   C9        1.0  0.960739656983602  0.565616250024174  0.5321202901304667  1.0000
  C   C10       1.0  0.03564490240020944  0.4369238802791761  0.4715514022953897  1.0000
  C   C11       1.0  0.5639671649752388  0.03254265516217002  0.6024631128029064  1.0000
  C   C12       1.0  0.4364163284620508  0.9643148182716799  0.3996325278321171  1.0000
  C   C13       1.0  0.5575999652321105  0.9555217633378615  0.5240533125614517  1.0000
  C   C14       1.0  0.44190132013439887  0.040011241923731795  0.47526810252137985  1.0000
  C   C15       1.0  0.9622617277863497  0.4385223201555762  0.401601367603888  1.0000
  C   C16       1.0  0.03654803742535546  0.5636977863205553  0.6025000034871688  1.0000
  C   C17       1.0  0.5443552533099503  0.5520724940185976  0.45476414046218855  1.0000
  C   C18       1.0  0.4521536294966843  0.45413230315259145  0.5460609476659563  1.0000
  C   C19       1.0  0.9103681456954438  0.9019034480020282  0.4456536007032728  1.0000
  C   C20       1.0  0.0925609801576293  0.09156878371346744  0.5512799476555517  1.0000
  C   C21       1.0  0.5395456529671362  0.09269688071569525  0.0010076819710877997  1.0000
  C   C22       1.0  0.46249473766061977  0.9098411517995124  0.006134454996272048  1.0000
  C   C23       1.0  0.9020947159187941  0.44847994646162664  0.9913759010142755  1.0000
  C   C24       1.0  0.09165888303842504  0.5463357649915918  0.9964784403049278  1.0000
  C   C25       1.0  0.5916842652814706  0.5973289515771589  0.4024739008090339  1.0000
  C   C26       1.0  0.4041031021112419  0.4036525314661809  0.5962151876116636  1.0000
  C   C27       1.0  0.8124077314618015  0.8046009527674115  0.3885903904695325  1.0000
  C   C28       1.0  0.18991766193956314  0.19207533285713368  0.6092414383390679  1.0000
  C   C29       1.0  0.5805957293794959  0.19078075548353585  0.9998938545602498  1.0000
  C   C30       1.0  0.4212151313808792  0.8110473617185378  0.0033006495158600766  1.0000
  C   C31       1.0  0.8049475028311432  0.4016798029133741  0.9942096300493938  1.0000
  C   C32       1.0  0.19257677322780017  0.5955231264527817  0.9984366907726087  1.0000
  C   C33       1.0  0.4774213048018204  0.5761914575315991  0.4850010299513721  1.0000
  C   C34       1.0  0.5192292724022228  0.4316116849295595  0.517602236674721  1.0000
  C   C35       1.0  0.9089111437526751  0.9921317928141092  0.47084282680716694  1.0000
  C   C36       1.0  0.0966545577995732  0.004140026726743341  0.5273643302838024  1.0000
  C   C37       1.0  0.563264996006924  0.09421165074678592  0.09181670789418232  1.0000
  C   C38       1.0  0.4399827672992617  0.910897969265355  0.9151671355041473  1.0000
  C   C39       1.0  0.99286244763928  0.5182500659065591  0.08228358760450344  1.0000
  C   C40       1.0  0.0036692792863313095  0.4782152891521887  0.9056307272666476  1.0000
  C   C41       1.0  0.006554426636719013  0.9072574360813404  0.47451262750056306  1.0000
  C   C42       1.0  0.9978541926152392  0.08622093742016185  0.5230325641576921  1.0000
  C   C43       1.0  0.5633656156901367  0.4800594797422047  0.4721394751217221  1.0000
  C   C44       1.0  0.43166654538661886  0.5246119402428596  0.5298883291486821  1.0000
  C   C45       1.0  0.9068803209388071  0.42708126541184555  0.9000115886773531  1.0000
  C   C46       1.0  0.08689609758683886  0.5669989200156994  0.08630204214501155  1.0000
  C   C47       1.0  0.47673669619415254  0.000260435445377833  0.9111129332862147  1.0000
  C   C48       1.0  0.5253115763767356  0.0037246943144788602  0.09752014918235637  1.0000
  N   N1        1.0  0.4577568600681995  0.6470031225423347  0.47350759062468983  1.0000
  N   N2        1.0  0.5489383323635127  0.009208235534035936  0.18806887272679748  1.0000
  N   N3        1.0  0.8232959295256529  0.3592721410779926  0.8093894508581129  1.0000
  N   N4        1.0  0.014440825184285577  0.8239144557981776  0.4541291913657275  1.0000
  N   N5        1.0  0.926394057865403  0.6271105208973728  0.5649023723464925  1.0000
  N   N6        1.0  0.6255198595916213  0.061650432930975725  0.6978156045857086  1.0000
  O   O1        1.0  0.8133543920040852  0.5588657025530209  0.3738706593917109  1.0000
  O   O2        1.0  0.17852550957025345  0.43726685578568747  0.6231165841019387  1.0000
  O   O3        1.0  0.5634938518170887  0.19052586966056034  0.7445951772110895  1.0000
  O   O4        1.0  0.43243418225520136  0.8079806312015971  0.25535191555831316  1.0000
  O   O5        1.0  0.5517318622747477  0.8090117313586116  0.37314995698605974  1.0000
  O   O6        1.0  0.44855658119204117  0.19051472465318192  0.6241896887479236  1.0000
  O   O7        1.0  0.8147799275510936  0.438343098091061  0.25847699552539244  1.0000
  O   O8        1.0  0.1898829114552908  0.5665526706021135  0.7417773422466595  1.0000
  O   O9        1.0  0.6280995116229239  0.4307291767225671  0.1993751380074073  1.0000
  O   O10       1.0  0.3696572274033362  0.5635384469179087  0.7939638891045049  1.0000
  O   O11       1.0  0.764968952491234  0.5617289023493924  0.19458067104279445  1.0000
  O   O12       1.0  0.23295954144006437  0.43984371508536146  0.8051940386273354  1.0000
  O   O13       1.0  0.4264506036948488  0.2262469169005526  0.7927116975564238  1.0000
  O   O14       1.0  0.5681994721017399  0.7742579457567546  0.20301431789245195  1.0000
  O   O15       1.0  0.5651867246243794  0.37437206686128316  0.8095029969185553  1.0000
  O   O16       1.0  0.4359487704764542  0.6242939455199181  0.1907496473423339  1.0000
  O   O17       1.0  0.6520134667757612  0.572727644463033  0.37973030980299877  1.0000
  O   O18       1.0  0.33678590346246856  0.4184077983463872  0.6123118146186197  1.0000
  O   O19       1.0  0.8121924003614807  0.7223001506684137  0.3655640452523404  1.0000
  O   O20       1.0  0.18440980222601402  0.27110806587820263  0.6373163700189683  1.0000
  O   O21       1.0  0.5528105552797379  0.1883629885292401  0.9160241704799794  1.0000
  O   O22       1.0  0.43859455592420765  0.8078205182559647  0.08443938058169555  1.0000
  O   O23       1.0  0.7215802429671112  0.3402005107593555  0.9121936920091871  1.0000
  O   O24       1.0  0.27224789069729444  0.6485195395156084  0.08346069062750379  1.0000
  O   O25       1.0  0.7290498120880188  0.8053815897654105  0.3629975096238507  1.0000
  O   O26       1.0  0.27361713721257647  0.1940641828696344  0.6285836633191632  1.0000
  O   O27       1.0  0.5704960476475417  0.6583561350328716  0.3811141563503067  1.0000
  O   O28       1.0  0.4345927394985769  0.34909062591178436  0.62056066942724  1.0000
  O   O29       1.0  0.8075495391248971  0.4246045732137805  0.07907282125611555  1.0000
  O   O30       1.0  0.1938942649089495  0.5814789401628303  0.9169057625791549  1.0000
  O   O31       1.0  0.6408639710664771  0.2718143853462703  0.08256229256462046  1.0000
  O   O32       1.0  0.3691937236886024  0.7307398707289681  0.9187150418555216  1.0000
  O   O33       1.0  0.602692114594066  0.6023226113437254  0.21282324262149893  1.0000
  O   O34       1.0  0.39440344644688663  0.3966081266325612  0.7820249682985141  1.0000
  O   O35       1.0  0.609722463228649  0.3940001051929368  0.001615291143736601  1.0000
  O   O36       1.0  0.38867728011533054  0.6040124510303793  0.9969124185674302  1.0000
