data_image0
_chemical_formula_structural       Ti8H34C46N4O32
_chemical_formula_sum              "Ti8 H34 C46 N4 O32"
_cell_length_a       15.95420099858623
_cell_length_b       16.04795857598427
_cell_length_c       15.585022796463363
_cell_angle_alpha    107.21339292370709
_cell_angle_beta     106.05997152020328
_cell_angle_gamma    116.0387522435376

_space_group_name_H-M_alt    "P 1"
_space_group_IT_number       1

loop_
  _space_group_symop_operation_xyz
  'x, y, z'

loop_
  _atom_site_type_symbol
  _atom_site_label
  _atom_site_symmetry_multiplicity
  _atom_site_fract_x
  _atom_site_fract_y
  _atom_site_fract_z
  _atom_site_occupancy
  Ti  Ti1       1.0  0.3048005782628676  0.5742405322816257  0.857362437447469  1.0000
  Ti  Ti2       1.0  0.7132597608255654  0.44118186397210807  0.13907002677022182  1.0000
  Ti  Ti3       1.0  0.3828557967394666  0.2422874280039834  0.7119456830257809  1.0000
  Ti  Ti4       1.0  0.5237360466235548  0.6654960537327876  0.2809695672765243  1.0000
  Ti  Ti5       1.0  0.4363487670007256  0.7035416722084461  0.13437451478688459  1.0000
  Ti  Ti6       1.0  0.564802717906485  0.30119109617290474  0.862718229702106  1.0000
  Ti  Ti7       1.0  0.24170556708867438  0.3847789773596669  0.7103214162135679  1.0000
  Ti  Ti8       1.0  0.6719825185209274  0.5313823906052969  0.28429446701805616  1.0000
  H   H1        1.0  0.6092046092749408  0.4523303396076858  0.6613366544722697  1.0000
  H   H2        1.0  0.11131727161774793  0.9528327995080133  0.49594884303826864  1.0000
  H   H3        1.0  0.781036616677927  0.9372886220256635  0.35311191302686845  1.0000
  H   H4        1.0  0.4540781285086286  0.8407952622460652  0.8417609383313559  1.0000
  H   H5        1.0  0.6563098222196445  0.18158260115014435  0.16152676253732806  1.0000
  H   H6        1.0  0.018336198083350713  0.49235362966216933  0.8320435966924005  1.0000
  H   H7        1.0  0.9959050114658544  0.604819682428676  0.1532567055125857  1.0000
  H   H8        1.0  0.5166786436300608  0.01027506042667723  0.8348277342246097  1.0000
  H   H9        1.0  0.173074872286331  0.6768638634216027  0.15862429766929  1.0000
  H   H10       1.0  0.6453497581662468  0.4888213118346688  0.5250992801519255  1.0000
  H   H11       1.0  0.41841582458995197  0.5765131332334275  0.6393825177537679  1.0000
  H   H12       1.0  0.9531269479570249  0.11136519482962552  0.4842943980805372  1.0000
  H   H13       1.0  0.34740618947415297  0.5180399553331795  0.9909618920729664  1.0000
  H   H14       1.0  0.5227189749796978  0.35214719043936005  0.007880463632267845  1.0000
  H   H15       1.0  0.3904295644901231  0.06251940602034414  0.44306817533554926  1.0000
  H   H16       1.0  0.6041969202030865  0.9286504663764936  0.5551834985961441  1.0000
  H   H17       1.0  0.0837221731384248  0.614009061474917  0.6869777509166556  1.0000
  H   H18       1.0  0.9199798880581803  0.39080066287839293  0.31317826083237377  1.0000
  H   H19       1.0  0.048319554497585786  0.3762652641164509  0.43241380982771443  1.0000
  H   H20       1.0  0.3957288971120411  0.9308615858584754  0.3133155055982072  1.0000
  H   H21       1.0  0.5668882068564951  0.9496051641508838  0.19594310934931133  1.0000
  H   H22       1.0  0.6312596047723836  0.08680321709982278  0.25233966746118913  1.0000
  H   H23       1.0  0.5999516908298766  0.599162973885092  0.18069339888910052  1.0000
  H   H24       1.0  0.41672869858052713  0.4177756372109168  0.8076014763394214  1.0000
  H   H25       1.0  0.8318284429414323  0.3737808873416143  0.7425995795113572  1.0000
  H   H26       1.0  0.751171939166461  0.3673931601193202  0.7998249752582273  1.0000
  H   H27       1.0  0.9770269823493799  0.6792434931457866  0.6561011145465546  1.0000
  H   H28       1.0  0.8831771502560021  0.6338308826260689  0.5333354124737302  1.0000
  H   H29       1.0  0.6555484518217426  0.03641886407384263  0.7256098581589262  1.0000
  H   H30       1.0  0.6213863906864705  0.12628552484327307  0.7612581753844386  1.0000
  H   H31       1.0  0.4967930246296486  0.49755071399536827  0.7174614197264296  1.0000
  H   H32       1.0  0.4543623243743086  0.6131125686891058  0.5030128407700053  1.0000
  H   H33       1.0  0.7761488813317973  0.7732019459186514  0.2943708431567958  1.0000
  H   H34       1.0  0.9390820141191414  0.7788381156175184  0.3654031529199226  1.0000
  C   C1        1.0  0.8457168436487673  0.5059875200565384  0.3562275074063925  1.0000
  C   C2        1.0  0.14878686858149967  0.4889036061595742  0.6411926557673645  1.0000
  C   C3        1.0  0.48851342338109816  0.14842417825765927  0.6440733959624415  1.0000
  C   C4        1.0  0.4992505184415541  0.8397223067725939  0.35185489833020256  1.0000
  C   C5        1.0  0.9254795897922425  0.5066056810744446  0.43156779705747583  1.0000
  C   C6        1.0  0.07337831382015579  0.49529842383929984  0.5670231858074647  1.0000
  C   C7        1.0  0.4974912682033376  0.07402862705122715  0.5721471790347916  1.0000
  C   C8        1.0  0.500906758491946  0.9227224291548323  0.42808283321629237  1.0000
  C   C9        1.0  0.9710360120646093  0.5710516548458613  0.5391380273350609  1.0000
  C   C10       1.0  0.027292879878373193  0.43071677694069216  0.46100402270754626  1.0000
  C   C11       1.0  0.5615785978106407  0.03807017686022008  0.6065000993345894  1.0000
  C   C12       1.0  0.4408698944212429  0.9610408143398007  0.39461930652399624  1.0000
  C   C13       1.0  0.5591991385109677  0.9602007909180855  0.5315969854837949  1.0000
  C   C14       1.0  0.43854672149425555  0.03388661908303447  0.46651330221932097  1.0000
  C   C15       1.0  0.9561110060361324  0.4386898044277683  0.39550553872476063  1.0000
  C   C16       1.0  0.04657858970448302  0.5648252084837696  0.6046686398015165  1.0000
  C   C17       1.0  0.5523956549001767  0.5535091337752042  0.5064575198516672  1.0000
  C   C18       1.0  0.5119036259834092  0.5126097768628847  0.6578185740392637  1.0000
  C   C19       1.0  0.8505406198586178  0.848501744636775  0.35243341704314707  1.0000
  C   C20       1.0  0.04224591755043626  0.04222586097518712  0.4979654164072359  1.0000
  C   C21       1.0  0.5905181812410222  0.10556686579267692  0.9990421573434913  1.0000
  C   C22       1.0  0.5178280969769637  0.9140346128049968  0.004581145756160049  1.0000
  C   C23       1.0  0.906701273172342  0.5076281202613788  0.9902922810607732  1.0000
  C   C24       1.0  0.1043107151198212  0.5879021647887042  0.9946785707202371  1.0000
  C   C25       1.0  0.5750217942617152  0.5763855432400138  0.4271087033487559  1.0000
  C   C26       1.0  0.14430433890114425  0.14506230021257285  0.5739058063396861  1.0000
  C   C27       1.0  0.6225714439735648  0.20672987841908838  0.9975351004374206  1.0000
  C   C28       1.0  0.47089211235495876  0.8116393974083759  0.0011138959107969493  1.0000
  C   C29       1.0  0.8073902207252794  0.46376814680330103  0.9942340894334657  1.0000
  C   C30       1.0  0.20795975496748384  0.6235791711738583  0.9965186404210938  1.0000
  C   C31       1.0  0.4878991414059789  0.5780353504919302  0.5381606832420293  1.0000
  C   C32       1.0  0.5755831396437627  0.48742981327306384  0.6262393783308037  1.0000
  C   C33       1.0  0.853590657899881  0.9413745104821728  0.38547895446496555  1.0000
  C   C34       1.0  0.03847365910792921  0.9484322395118112  0.46474244557060934  1.0000
  C   C35       1.0  0.6126866119321851  0.10612217048304283  0.09206928739149711  1.0000
  C   C36       1.0  0.49900181010608696  0.9163132355017426  0.9112610030417818  1.0000
  C   C37       1.0  0.0021509840918441103  0.5814751642843424  0.08343436968821573  1.0000
  C   C38       1.0  0.011982263745030412  0.5170983871600616  0.901800104551718  1.0000
  C   C39       1.0  0.9427510300690973  0.8519133190166973  0.3922924757724404  1.0000
  C   C40       1.0  0.9490349584671781  0.038080275355116155  0.4581369446198312  1.0000
  C   C41       1.0  0.5958479499029892  0.5077042648817676  0.5507214284709746  1.0000
  C   C42       1.0  0.4678639409617461  0.5575267131326734  0.6136845789225153  1.0000
  C   C43       1.0  0.9111828428682268  0.47489912659185757  0.8964042767347442  1.0000
  C   C44       1.0  0.09978727262834156  0.6214878157775103  0.08686890250313936  1.0000
  C   C45       1.0  0.5337985466432628  0.009555180672607346  0.9071356009368845  1.0000
  C   C46       1.0  0.5773719981642521  0.011706070768550347  0.0981832427862464  1.0000
  N   N1        1.0  0.6007768543702272  0.017347512725064185  0.19148673569947974  1.0000
  N   N2        1.0  0.8232517648488628  0.40564476379487074  0.8032637490163504  1.0000
  N   N3        1.0  0.9462772776818978  0.6391225129702536  0.5796498542384134  1.0000
  N   N4        1.0  0.6225920553165907  0.07385898264980444  0.7067172212080467  1.0000
  O   O1        1.0  0.798436988658237  0.5479255687632716  0.3858710168095812  1.0000
  O   O2        1.0  0.15520032299059222  0.4090606546104509  0.6099158736102284  1.0000
  O   O3        1.0  0.5582149888368286  0.20096458342351997  0.7384300724495955  1.0000
  O   O4        1.0  0.4606558398944817  0.8208421197189983  0.25967286351469365  1.0000
  O   O5        1.0  0.5345618853181211  0.7892346147438632  0.381350019850822  1.0000
  O   O6        1.0  0.410929502436709  0.15788541521813845  0.6123069873579926  1.0000
  O   O7        1.0  0.8230214626921634  0.46152620974980024  0.2626432376307453  1.0000
  O   O8        1.0  0.20199918774608508  0.562090456085033  0.7337388524366926  1.0000
  O   O9        1.0  0.6098114469227978  0.40092233078937783  0.19270228622832555  1.0000
  O   O10       1.0  0.3536793594019238  0.5243267666665843  0.7735159297866738  1.0000
  O   O11       1.0  0.747633992832616  0.5754765274039908  0.21940155074586112  1.0000
  O   O12       1.0  0.20819334158436947  0.4189546891112463  0.8060506500655281  1.0000
  O   O13       1.0  0.4107888883239151  0.20677958469764543  0.8067571069083598  1.0000
  O   O14       1.0  0.5709809916229355  0.7412493558275991  0.21772389967031305  1.0000
  O   O15       1.0  0.523016601284273  0.35442491202922466  0.7812375030792786  1.0000
  O   O16       1.0  0.3945000562472673  0.6017384175998841  0.18573877073754533  1.0000
  O   O17       1.0  0.6330770855166401  0.552090223468745  0.3990872834527767  1.0000
  O   O18       1.0  0.14510092201673924  0.2288750401256676  0.6048144911680671  1.0000
  O   O19       1.0  0.5897530171315903  0.20304253306414927  0.9109513994513525  1.0000
  O   O20       1.0  0.4883420486565516  0.8068398070105254  0.08479484771931796  1.0000
  O   O21       1.0  0.7188355321962386  0.39933068092089713  0.9108901979443267  1.0000
  O   O22       1.0  0.2900714436528189  0.6766483794260432  0.08335313660330056  1.0000
  O   O23       1.0  0.22818514704890486  0.1463627256939364  0.6058510627639441  1.0000
  O   O24       1.0  0.5361048357278668  0.6199016592087805  0.3896429803284791  1.0000
  O   O25       1.0  0.8086632778185738  0.4884926136914884  0.08123204955432635  1.0000
  O   O26       1.0  0.20967935116858463  0.5982498105093663  0.9116909940760735  1.0000
  O   O27       1.0  0.6799069236875581  0.2920219586987134  0.08274278154790682  1.0000
  O   O28       1.0  0.4106345174488449  0.7263223012221391  0.914323736719579  1.0000
  O   O29       1.0  0.5877411379258028  0.5872066376273853  0.2351026955980736  1.0000
  O   O30       1.0  0.3495348044326887  0.3511936133553289  0.7556638547837955  1.0000
  O   O31       1.0  0.587539729480213  0.3844684159704926  0.0024509904658312934  1.0000
  O   O32       1.0  0.383691772651314  0.5872361986653815  0.9948127796860075  1.0000
